sectionalized/no_load/0pc/TNB_DUMA_VLN.Txt

SYMMETRICAL COMPONENT VOLTAGES BY BUS (for 3-phase buses)

Bus               Mag:   V1 (kV)    p.u.     V2 (kV)   %V2/V1    V0 (kV)    %V0/V1

ppu_duma_33kv        19.05          1  9.311E-009  4.887E-008 1.239E-009 6.505E-009
ppu_duma_11kv_a      6.351          1  3.289E-009  5.18E-008 2.925E-014 4.605E-013
ppu_duma_11kv_b      6.351          1  3.289E-009  5.179E-008 6.863E-015 1.081E-013
rpplngi2             6.351          1  3.289E-009  5.179E-008 6.283E-015 9.893E-014
pdtjlnmasjid         6.351          1  3.289E-009  5.179E-008 6.019E-015 9.478E-014
bella                6.351          1  3.289E-009  5.179E-008 5.924E-015 9.328E-014
pstpdgn              6.351          1  3.289E-009  5.179E-008 6.355E-015 1.001E-013
atria_1              6.351          1  3.289E-009  5.179E-008 6.401E-015 1.008E-013
hawker               6.351          1  3.289E-009  5.179E-008 6.647E-015 1.047E-013
duma7                6.351          1  3.289E-009  5.179E-008 6.814E-015 1.073E-013
haus                 6.351          1  3.289E-009  5.179E-008 7.683E-015 1.21E-013
duma6                6.351          1  3.289E-009  5.179E-008 1.457E-014 2.294E-013
duma13               6.351          1  3.289E-009  5.179E-008 2.407E-014 3.789E-013
ssu_duma5_im2        6.351          1  3.289E-009  5.179E-008 2.441E-014 3.843E-013
pdtlitrak            6.351          1  3.289E-009  5.179E-008 7.038E-015 1.108E-013
duma12               6.351          1  3.289E-009  5.179E-008 7.734E-015 1.218E-013
tmngh4               6.351          1  3.289E-009  5.179E-008 6.788E-015 1.069E-013
ssu_tmegah3_ir1      6.351          1  3.289E-009  5.179E-008 6.178E-015 9.727E-014
tmngh2               6.351          1  3.289E-009  5.179E-008 8.322E-015 1.31E-013
ssu_uptwres_im2      6.351          1  3.289E-009  5.179E-008 4.102E-015 6.46E-014
maybank              6.351          1  3.289E-009  5.179E-008 4.106E-015 6.465E-014
duma8                6.351          1  3.289E-009  5.179E-008 5.174E-015 8.147E-014
duma9                6.351          1  3.289E-009  5.179E-008 4.143E-015 6.523E-014
duma1                6.351          1  3.289E-009  5.179E-008 3.255E-015 5.125E-014
elite                6.351          1  3.289E-009  5.179E-008 3.468E-015 5.461E-014
pamdra               6.351          1  3.289E-009  5.179E-008 2.92E-014 4.597E-013
duma4                6.351          1  3.289E-009  5.179E-008 3.284E-014 5.172E-013
plsdra               6.351          1  3.289E-009  5.179E-008 4.275E-014 6.731E-013
prmte                6.351          1  3.289E-009  5.179E-008 2.598E-014 4.091E-013
prmta                6.351          1  3.289E-009  5.179E-008 2.596E-014 4.088E-013
pmontb               6.351          1  3.289E-009  5.179E-008 3.047E-014 4.798E-013
plngi_b              6.351          1  3.289E-009  5.18E-008 2.989E-014 4.706E-013
plngi_d              6.351          1  3.289E-009  5.18E-008 2.993E-014 4.712E-013
sprk9                6.351          1  3.289E-009  5.179E-008 3.118E-014 4.91E-013
bomba                6.351          1  3.289E-009  5.179E-008 3.237E-014 5.097E-013
sprk8                6.351          1  3.289E-009  5.179E-008 3.276E-014 5.158E-013
ssu_dsarcntr_ir1     6.351          1  3.289E-009  5.179E-008 2.875E-014 4.527E-013
duma10               6.351          1  3.29E-009  5.18E-008 5.105E-014 8.039E-013
balaipolis           6.351          1  3.29E-009  5.18E-008 5.148E-014 8.106E-013
ssu_uptwres_ir1      6.351          1  3.289E-009  5.179E-008 4.316E-014 6.795E-013
ppu_duma_vcb1            0          0          0          0         0         0
